.MODEL 1N34a D(
# Reverse Breakdown voltage
+bv=75 
# Zero bias p-n capacitance
+cjo=0.5e-12 eg=0.67 ibv=18e-3 is=2e-7 rs=7 n=1.3 vj=0.1 m=0.27)