Version 4
SHEET 1 1252 680
WIRE -32 64 -48 64
WIRE 80 64 32 64
WIRE 208 64 160 64
WIRE 352 64 288 64
WIRE 400 64 352 64
WIRE 624 64 480 64
WIRE 544 96 448 96
WIRE 544 112 544 96
WIRE -48 128 -48 64
WIRE 1168 160 1120 160
WIRE 1168 176 1168 160
WIRE 448 208 448 96
WIRE 544 208 544 192
WIRE 352 224 352 64
WIRE 416 224 352 224
WIRE 624 240 624 64
WIRE 624 240 480 240
WIRE 640 240 624 240
WIRE 656 240 640 240
WIRE 784 240 736 240
WIRE 928 240 848 240
WIRE 1008 240 928 240
WIRE 1072 240 1008 240
WIRE 1120 240 1120 160
WIRE 1120 240 1072 240
WIRE -96 256 -96 224
WIRE 80 256 -96 256
WIRE 192 256 160 256
WIRE 208 256 192 256
WIRE 320 256 272 256
WIRE 416 256 320 256
WIRE -96 272 -96 256
WIRE 320 272 320 256
WIRE 1168 272 1168 256
WIRE 928 288 928 240
WIRE 1008 288 1008 240
WIRE 1072 288 1072 240
WIRE 1168 288 1168 272
WIRE 448 304 448 272
WIRE 928 384 928 352
WIRE 1008 384 1008 352
WIRE 1072 384 1072 352
WIRE 1168 384 1168 368
WIRE -96 416 -96 352
WIRE 320 416 320 352
WIRE 448 416 448 384
FLAG 320 416 0
FLAG -96 224 Vin
FLAG 192 256 Vc
FLAG -96 416 0
FLAG 544 208 0
FLAG -48 128 0
FLAG 928 384 0
FLAG 1008 384 0
FLAG 1072 384 0
FLAG 1168 384 0
FLAG 1168 272 Vout
FLAG 640 240 AmpOut
FLAG 448 416 0
SYMBOL res 64 272 R270
WINDOW 0 32 56 VTop 2
WINDOW 3 0 56 VBottom 2
SYMATTR InstName R1
SYMATTR Value 10k
SYMBOL res 304 256 R0
SYMATTR InstName R2
SYMATTR Value 1meg
SYMBOL cap 208 272 R270
WINDOW 0 32 32 VTop 2
WINDOW 3 0 32 VBottom 2
SYMATTR InstName C1
SYMATTR Value 0.01µ
SYMBOL Opamps/UniversalOpamp2 448 240 R0
SYMATTR InstName U1
SYMBOL voltage 544 96 R0
SYMATTR InstName V1
SYMATTR Value 10
SYMBOL res 64 80 R270
WINDOW 0 32 56 VTop 2
WINDOW 3 0 56 VBottom 2
SYMATTR InstName R3
SYMATTR Value 4.7k
SYMBOL cap -32 80 R270
WINDOW 0 32 32 VTop 2
WINDOW 3 0 32 VBottom 2
SYMATTR InstName C2
SYMATTR Value 0.047µ
SYMBOL res 192 80 R270
WINDOW 0 32 56 VTop 2
WINDOW 3 0 56 VBottom 2
SYMATTR InstName R4
SYMATTR Value 500k
SYMBOL res 384 80 R270
WINDOW 0 32 56 VTop 2
WINDOW 3 0 56 VBottom 2
SYMATTR InstName R5
SYMATTR Value 1meg
SYMBOL res 640 256 R270
WINDOW 0 32 56 VTop 2
WINDOW 3 0 56 VBottom 2
SYMATTR InstName R6
SYMATTR Value 10k
SYMBOL cap 1056 288 R0
SYMATTR InstName C3
SYMATTR Value 0.001µ
SYMBOL res 1152 272 R0
SYMATTR InstName R7
SYMATTR Value 1meg
SYMBOL diode 912 288 R0
SYMATTR InstName D1
SYMATTR Value 1N4148
SYMBOL diode 1024 352 R180
WINDOW 0 24 64 Left 2
WINDOW 3 24 0 Left 2
SYMATTR InstName D2
SYMATTR Value 1N4148
SYMBOL res 1152 160 R0
SYMATTR InstName R8
SYMATTR Value 0
SYMBOL voltage 448 288 R0
SYMATTR InstName V3
SYMATTR Value -10
SYMBOL voltage -96 256 R0
SYMATTR InstName V2
SYMATTR Value SINE(0 1 1000)
SYMBOL cap 784 256 R270
WINDOW 0 32 32 VTop 2
WINDOW 3 0 32 VBottom 2
SYMATTR InstName C4
SYMATTR Value 1µ
TEXT -288 272 Left 2 !.tran 0.005
TEXT -16 512 Left 2 !.wave "output2.wav" 16 44.1k V(Vout)
